21
Coordinates from ORCA-job freq
  N   -1.71073461502717     -0.03967340066915      0.08749943602204
  C   -3.14824675193684     -0.06183475274702     -0.07783825243698
  C   -1.04223412859742      1.16280839701188      0.09083730689438
  C   0.30034153891697      1.22716225211934      0.02991252625156
  O   0.88645943736310      2.45701601138324      0.03650863579777
  H   1.77005664042994      2.36573476382654      0.41157403120038
  C   1.12986940041488      0.03246233244176     -0.04296509430278
  C   2.47645234252123      0.08870637552813     -0.13820393812389
  C   0.37238755679972     -1.21293767809647      0.00426145940895
  C   1.11458829206987     -2.51108694537799     -0.02356385813946
  C   -0.97778085876595     -1.19041765102968      0.04345777746487
  H   -3.43764095019506      0.06060371824171     -1.12532057664170
  H   -3.53807298442205     -1.01011725541034      0.28714374181715
  H   -3.59634743183954      0.74193663283536      0.50546667706944
  H   -1.64283984397644      2.05891862428378      0.15338140472618
  H   3.07614844366653     -0.80866396725287     -0.15355793408653
  H   3.00968978712701      1.02189030518953     -0.25457668281411
  H   1.79572927513876     -2.58733587622010      0.82830153558864
  H   0.43206587319688     -3.35965939349839      0.00388207259908
  H   1.72456640843749     -2.58625573967442     -0.92787135915729
  H   -1.55665743132191     -2.10545675288484      0.04527109086230
