21
Coordinates from ORCA-job freq
  N   -1.68180097555267     -0.02550491851781      0.02349834564582
  C   -3.15160927225686     -0.07629251541766     -0.01199487392013
  C   -1.05847421019882      1.15842614221024      0.06334956585361
  C   0.32026636771459      1.23153848658584      0.05613865110094
  O   0.82619545547092      2.46094961854385      0.10628361632008
  H   1.78928496217058      2.47451518281221      0.08761728411853
  C   1.10193212163079      0.03727228717429      0.00309579529027
  C   2.48968694923817      0.07198842414305      0.00116662918295
  C   0.38500987352156     -1.20342135874842     -0.04382875417466
  C   1.11185458699757     -2.51023180777435     -0.10157254783012
  C   -0.98189473988889     -1.18444630899173     -0.03090778570316
  H   -3.47972436253275     -0.21729809220849     -1.04084246323361
  H   -3.48980256237089     -0.90627807212854      0.60247892493116
  H   -3.54913103024927      0.85488803400171      0.37961179720766
  H   -1.66173077927708      2.05381239072454      0.09907868255909
  H   3.06953583046194     -0.83707948962983     -0.03269674819408
  H   3.05918350421199      0.98960585314966      0.03507178911200
  H   1.75289381369864     -2.63483999866540      0.77286171010719
  H   0.41461826386254     -3.34387790555520     -0.13329763954211
  H   1.74378755220085     -2.56093960114920     -0.99003397758990
  H   -1.57228134885291     -2.08898635055874     -0.06147800124151
