21
Coordinates from ORCA-job freq
  N   -1.64214937002891     -0.01805831122640     -0.01807006387083
  C   -3.10746016795039     -0.04800872643935     -0.03885961291225
  C   -1.00723271765935      1.15613109080780     -0.00835983694693
  C   0.42415252348955      1.26254115279983      0.00519414424949
  O   0.98923919896294      2.36394134832824      0.01247562603127
  C   1.11293234791051     -0.01483912513172      0.01116293415729
  C   2.60846609069998      0.00690162161581      0.03034464471545
  C   0.40354839291324     -1.20195012226246     -0.00033776422508
  C   1.11420868636452     -2.52687753364746      0.00624660675964
  C   -0.98839301280369     -1.19005702099859     -0.01552397607022
  H   -3.44599047968524     -0.51985940322669     -0.95911481300892
  H   -3.46682685615122     -0.61440570532937      0.81763434822378
  H   -3.48488791872536      0.96779407275189      0.01141862466586
  H   -1.61269786954945      2.05022583305419     -0.01121826407752
  H   3.00184319944723     -0.53042649791900      0.89687801050425
  H   3.02302013504388     -0.47242696381324     -0.86032214176168
  H   2.94785516755547      1.03927177734614      0.06605862959167
  H   1.73762440317943     -2.62668397671218      0.89652248374915
  H   0.40982353419809     -3.35732057824223     -0.01238478431906
  H   1.77317947636977     -2.61711531323513     -0.85904548745214
  H   -1.59375476358098     -2.08377761852003     -0.02419930800323
