22
C8H12NO
N         -1.63900       -0.02800       -0.00250
C         -3.10400       -0.04230        0.00190
C         -1.00910        1.12980       -0.01390
C          0.37740        1.18140       -0.01830
O          1.02260        2.37750       -0.03000
H          1.21190        2.73100        0.84990
C          1.09770       -0.00860       -0.01000
C          2.60460        0.00120       -0.01390
C          0.39560       -1.20320        0.00230
C          1.13010       -2.51910        0.01210
C         -0.98620       -1.17380        0.01060
H         -3.47020       -0.05440       -1.02470
H         -3.45710       -0.93150        0.52410
H         -3.47450        0.84830        0.50940
H         -1.57810        2.04770       -0.02020
H          2.97060        0.01220        1.01280
H          2.97240       -0.89070       -0.52110
H          2.96090        0.88910       -0.53620
H          1.30980       -2.82720        1.04210
H          0.52880       -3.27460       -0.49350
H          2.08300       -2.40710       -0.50510
H         -1.53880       -2.10170        0.02060
